data_global
_cell_length_a 40
_cell_length_b 40
_cell_length_c 55.4136
_cell_angle_alpha 90
_cell_angle_beta 90
_cell_angle_gamma 90
_symmetry_space_group_name_H-M 'P -1'
loop_
_symmetry_equiv_pos_as_xyz
  'x,y,z'
loop_
_atom_site_label
_atom_site_fract_x
_atom_site_fract_y
_atom_site_fract_z
C 0.316449 0.376951 0.0128205
C 0.316449 0.438476 0.0128205
C 0.316449 0.500001 0.0128205
C 0.316449 0.561526 0.0128205
C 0.316449 0.623051 0.0128205
H 0.316449 0.677413 0.0158059
H 0.316449 0.353352 0.0226556
C 0.316449 0.407714 0.025641
C 0.316449 0.469239 0.025641
C 0.316449 0.530764 0.025641
C 0.316449 0.592289 0.025641
C 0.316449 0.653814 0.025641
C 0.316449 0.592289 0.051282
C 0.316449 0.653814 0.051282
C 0.316449 0.407714 0.0512827
C 0.316449 0.469239 0.0512827
C 0.316449 0.530764 0.0512827
H 0.316449 0.353352 0.0542681
H 0.316449 0.677413 0.0611171
C 0.316449 0.623051 0.0641025
C 0.316449 0.376951 0.0641032
C 0.316449 0.438476 0.0641032
C 0.316449 0.500001 0.0641032
C 0.316449 0.561526 0.0641032
C 0.316449 0.623051 0.0897435
C 0.316449 0.376951 0.0897442
C 0.316449 0.438476 0.0897442
C 0.316449 0.500001 0.0897442
C 0.316449 0.561526 0.0897442
H 0.316449 0.677413 0.0927288
H 0.316449 0.353352 0.0995793
C 0.316449 0.592289 0.102564
C 0.316449 0.653814 0.102564
C 0.316449 0.407714 0.102565
C 0.316449 0.469239 0.102565
C 0.316449 0.530764 0.102565
C 0.316449 0.592289 0.128205
C 0.316449 0.653814 0.128205
C 0.316449 0.407714 0.128206
C 0.316449 0.469239 0.128206
C 0.316449 0.530764 0.128206
H 0.316449 0.353352 0.131191
H 0.316449 0.677413 0.13804
C 0.316449 0.623051 0.141025
C 0.316449 0.376951 0.141026
C 0.316449 0.438476 0.141026
C 0.316449 0.500001 0.141026
C 0.316449 0.561526 0.141026
C 0.316449 0.623051 0.166666
C 0.316449 0.376951 0.166667
C 0.316449 0.438476 0.166667
C 0.316449 0.500001 0.166667
C 0.316449 0.561526 0.166667
H 0.316449 0.677413 0.169652
H 0.316449 0.353352 0.176502
C 0.316449 0.592289 0.179487
C 0.316449 0.653814 0.179487
C 0.316449 0.407714 0.179488
C 0.316449 0.469239 0.179488
C 0.316449 0.530764 0.179488
C 0.316449 0.592289 0.205128
C 0.316449 0.653814 0.205128
C 0.316449 0.407714 0.205129
C 0.316449 0.469239 0.205129
C 0.316449 0.530764 0.205129
H 0.316449 0.353352 0.208114
H 0.316449 0.677413 0.214963
C 0.316449 0.623051 0.217948
C 0.316449 0.376951 0.217949
C 0.316449 0.438476 0.217949
C 0.316449 0.500001 0.217949
C 0.316449 0.561526 0.217949
C 0.316449 0.623051 0.243589
C 0.316449 0.376951 0.24359
C 0.316449 0.438476 0.24359
C 0.316449 0.500001 0.24359
C 0.316449 0.561526 0.24359
H 0.316449 0.677413 0.246575
H 0.316449 0.353352 0.253425
C 0.316449 0.592289 0.25641
C 0.316449 0.653814 0.25641
C 0.316449 0.407714 0.256411
C 0.316449 0.469239 0.256411
C 0.316449 0.530764 0.256411
C 0.316449 0.592289 0.282051
C 0.316449 0.653814 0.282051
C 0.316449 0.407714 0.282052
C 0.316449 0.469239 0.282052
C 0.316449 0.530764 0.282052
H 0.316449 0.353352 0.285037
H 0.316449 0.677413 0.291886
C 0.316449 0.623051 0.294871
C 0.316449 0.376951 0.294872
C 0.316449 0.438476 0.294872
C 0.316449 0.500001 0.294872
C 0.316449 0.561526 0.294872
C 0.316449 0.623051 0.320512
C 0.316449 0.376951 0.320513
C 0.316449 0.438476 0.320513
C 0.316449 0.500001 0.320513
C 0.316449 0.561526 0.320513
H 0.316449 0.677413 0.323498
H 0.316449 0.353352 0.330348
C 0.316449 0.592289 0.333333
C 0.316449 0.653814 0.333333
C 0.316449 0.407714 0.333334
C 0.316449 0.469239 0.333334
C 0.316449 0.530764 0.333334
C 0.316449 0.407714 0.358975
C 0.316449 0.469239 0.358975
C 0.316449 0.530764 0.358975
C 0.316449 0.592289 0.358975
C 0.316449 0.653814 0.358975
H 0.316449 0.353352 0.36196
H 0.316449 0.677413 0.36881
C 0.316449 0.376951 0.371795
C 0.316449 0.438476 0.371795
C 0.316449 0.500001 0.371795
C 0.316449 0.561526 0.371795
C 0.316449 0.623051 0.371796
C 0.316449 0.376951 0.397436
C 0.316449 0.438476 0.397436
C 0.316449 0.500001 0.397436
C 0.316449 0.561526 0.397436
C 0.316449 0.623051 0.397437
H 0.316449 0.677413 0.400422
H 0.316449 0.353352 0.407271
C 0.316449 0.407714 0.410257
C 0.316449 0.469239 0.410257
C 0.316449 0.530764 0.410257
C 0.316449 0.592289 0.410257
C 0.316449 0.653814 0.410257
C 0.316449 0.407714 0.435898
C 0.316449 0.469239 0.435898
C 0.316449 0.530764 0.435898
C 0.316449 0.592289 0.435898
C 0.316449 0.653814 0.435898
H 0.316449 0.353352 0.438883
H 0.316449 0.677413 0.445733
C 0.316449 0.376951 0.448718
C 0.316449 0.438476 0.448718
C 0.316449 0.500001 0.448718
C 0.316449 0.561526 0.448718
C 0.316449 0.623051 0.448719
C 0.316449 0.376951 0.474359
C 0.316449 0.438476 0.474359
C 0.316449 0.500001 0.474359
C 0.316449 0.561526 0.474359
C 0.316449 0.623051 0.47436
H 0.316449 0.677413 0.477345
H 0.316449 0.353352 0.484194
C 0.316449 0.407714 0.48718
C 0.316449 0.469239 0.48718
C 0.316449 0.530764 0.48718
C 0.316449 0.592289 0.48718
C 0.316449 0.653814 0.48718
C 0.316449 0.407714 0.51282
C 0.316449 0.469239 0.51282
C 0.316449 0.530764 0.51282
C 0.316449 0.592289 0.512821
C 0.316449 0.653814 0.512821
H 0.316449 0.353352 0.515806
H 0.316449 0.677413 0.522656
C 0.316449 0.376951 0.525641
C 0.316449 0.438476 0.525641
C 0.316449 0.500001 0.525641
C 0.316449 0.561526 0.525641
C 0.316449 0.623051 0.525642
C 0.316449 0.376951 0.551282
C 0.316449 0.438476 0.551282
C 0.316449 0.500001 0.551282
C 0.316449 0.561526 0.551282
C 0.316449 0.623051 0.551283
H 0.316449 0.677413 0.554268
H 0.316449 0.353352 0.561117
C 0.316449 0.407714 0.564102
C 0.316449 0.469239 0.564102
C 0.316449 0.530764 0.564102
C 0.316449 0.592289 0.564103
C 0.316449 0.653814 0.564103
C 0.316449 0.407714 0.589744
C 0.316449 0.469239 0.589744
C 0.316449 0.530764 0.589744
C 0.316449 0.592289 0.589744
C 0.316449 0.653814 0.589744
H 0.316449 0.353352 0.59273
H 0.316449 0.677413 0.599579
C 0.316449 0.376951 0.602565
C 0.316449 0.438476 0.602565
C 0.316449 0.500001 0.602565
C 0.316449 0.561526 0.602565
C 0.316449 0.623051 0.602565
C 0.316449 0.623051 0.628206
C 0.316449 0.376951 0.628206
C 0.316449 0.438476 0.628206
C 0.316449 0.500001 0.628206
C 0.316449 0.561526 0.628206
H 0.316449 0.677413 0.631191
H 0.316449 0.353352 0.638041
C 0.316449 0.407714 0.641026
C 0.316449 0.469239 0.641026
C 0.316449 0.530764 0.641026
C 0.316449 0.592289 0.641026
C 0.316449 0.653814 0.641026
C 0.316449 0.407714 0.666667
C 0.316449 0.469239 0.666667
C 0.316449 0.530764 0.666667
C 0.316449 0.592289 0.666667
C 0.316449 0.653814 0.666667
H 0.316449 0.353352 0.669653
H 0.316449 0.677413 0.676502
C 0.316449 0.376951 0.679488
C 0.316449 0.438476 0.679488
C 0.316449 0.500001 0.679488
C 0.316449 0.561526 0.679488
C 0.316449 0.623051 0.679488
C 0.316449 0.376951 0.705129
C 0.316449 0.438476 0.705129
C 0.316449 0.500001 0.705129
C 0.316449 0.561526 0.705129
C 0.316449 0.623051 0.705129
H 0.316449 0.677413 0.708114
H 0.316449 0.353352 0.714964
C 0.316449 0.407714 0.717949
C 0.316449 0.469239 0.717949
C 0.316449 0.530764 0.717949
C 0.316449 0.592289 0.717949
C 0.316449 0.653814 0.717949
C 0.316449 0.592289 0.74359
C 0.316449 0.653814 0.74359
C 0.316449 0.407714 0.74359
C 0.316449 0.469239 0.74359
C 0.316449 0.530764 0.74359
H 0.316449 0.353352 0.746575
H 0.316449 0.677413 0.753425
C 0.316449 0.376951 0.756411
C 0.316449 0.438476 0.756411
C 0.316449 0.500001 0.756411
C 0.316449 0.561526 0.756411
C 0.316449 0.623051 0.756411
C 0.316449 0.376951 0.782052
C 0.316449 0.438476 0.782052
C 0.316449 0.500001 0.782052
C 0.316449 0.561526 0.782052
C 0.316449 0.623051 0.782052
H 0.316449 0.677413 0.785037
H 0.316449 0.353352 0.791887
C 0.316449 0.407714 0.794872
C 0.316449 0.469239 0.794872
C 0.316449 0.530764 0.794872
C 0.316449 0.592289 0.794872
C 0.316449 0.653814 0.794872
C 0.316449 0.407714 0.820513
C 0.316449 0.469239 0.820513
C 0.316449 0.530764 0.820513
C 0.316449 0.592289 0.820513
C 0.316449 0.653814 0.820513
H 0.316449 0.353352 0.823498
H 0.316449 0.677413 0.830348
C 0.316449 0.376951 0.833334
C 0.316449 0.438476 0.833334
C 0.316449 0.500001 0.833334
C 0.316449 0.561526 0.833334
C 0.316449 0.623051 0.833334
C 0.316449 0.376951 0.858975
C 0.316449 0.438476 0.858975
C 0.316449 0.500001 0.858975
C 0.316449 0.561526 0.858975
C 0.316449 0.623051 0.858975
H 0.316449 0.677413 0.86196
H 0.316449 0.353352 0.86881
C 0.316449 0.592289 0.871795
C 0.316449 0.653814 0.871795
C 0.316449 0.407714 0.871795
C 0.316449 0.469239 0.871795
C 0.316449 0.530764 0.871795
C 0.316449 0.407714 0.897436
C 0.316449 0.469239 0.897436
C 0.316449 0.530764 0.897436
C 0.316449 0.592289 0.897436
C 0.316449 0.653814 0.897436
H 0.316449 0.353352 0.900421
H 0.316449 0.677413 0.907271
C 0.316449 0.376951 0.910257
C 0.316449 0.438476 0.910257
C 0.316449 0.500001 0.910257
C 0.316449 0.561526 0.910257
C 0.316449 0.623051 0.910257
C 0.316449 0.376951 0.935898
C 0.316449 0.438476 0.935898
C 0.316449 0.500001 0.935898
C 0.316449 0.561526 0.935898
C 0.316449 0.623051 0.935898
H 0.316449 0.677413 0.938883
H 0.316449 0.353352 0.945733
C 0.316449 0.407714 0.948718
C 0.316449 0.469239 0.948718
C 0.316449 0.530764 0.948718
C 0.316449 0.592289 0.948718
C 0.316449 0.653814 0.948718
C 0.316449 0.407714 0.974359
C 0.316449 0.469239 0.974359
C 0.316449 0.530764 0.974359
C 0.316449 0.592289 0.974359
C 0.316449 0.653814 0.974359
H 0.316449 0.353352 0.977344
H 0.316449 0.677413 0.984194
C 0.316449 0.376951 0.98718
C 0.316449 0.438476 0.98718
C 0.316449 0.500001 0.98718
C 0.316449 0.561526 0.98718
C 0.316449 0.623051 0.98718
H 0.534401 0.587022 0.259498
O 0.538601 0.565899 0.267692
H 0.563876 0.521885 0.268233
O 0.574626 0.515216 0.283437
H 0.576776 0.5882 0.288761
C 0.554001 0.572382 0.290396
H 0.512676 0.513184 0.29596
H 0.511676 0.604569 0.299853
C 0.561451 0.537266 0.30061
H 0.626901 0.65356 0.305415
O 0.521626 0.459054 0.307662
C 0.528801 0.586332 0.308567
C 0.525751 0.527785 0.310305
H 0.579576 0.539159 0.315867
O 0.508776 0.558162 0.315902
H 0.673351 0.547492 0.318669
O 0.619001 0.662614 0.320752
O 0.566526 0.629279 0.322378
C 0.520751 0.47112 0.327855
O 0.619576 0.599357 0.330012
O 0.655101 0.548358 0.330411
C 0.544901 0.602553 0.330829
N 0.525076 0.506109 0.331958
P 0.600826 0.63524 0.337046
O 0.683551 0.606333 0.340771
H 0.559451 0.584044 0.341446
H 0.525576 0.613295 0.342917
P 0.653951 0.585016 0.343184
H 0.508076 0.428505 0.346875
N 0.515426 0.453245 0.348947
H 0.517426 0.547135 0.353718
C 0.518001 0.519801 0.353858
H 0.603276 0.54484 0.357081
O 0.598976 0.643666 0.362778
H 0.653926 0.514304 0.363656
O 0.642726 0.575386 0.369869
C 0.510751 0.465447 0.372624
C 0.509776 0.502066 0.374323
C 0.612851 0.554533 0.374597
H 0.493326 0.567031 0.376232
O 0.650601 0.506673 0.38023
H 0.433026 0.546869 0.381643
O 0.587776 0.573756 0.384659
H 0.442626 0.588627 0.388675
O 0.506476 0.445732 0.389423
C 0.624501 0.525454 0.390603
H 0.601751 0.509431 0.393057
C 0.484076 0.55584 0.393189
C 0.446201 0.562742 0.394691
C 0.492276 0.518649 0.395088
H 0.563376 0.629202 0.401296
H 0.620001 0.605848 0.403342
H 0.393326 0.493755 0.404129
C 0.598251 0.589298 0.407171
H 0.497901 0.568859 0.407788
O 0.482376 0.502269 0.412375
H 0.658301 0.553814 0.412632
C 0.635001 0.539016 0.415492
C 0.569826 0.611437 0.416028
C 0.430376 0.558241 0.419808
C 0.393051 0.557515 0.421909
O 0.541551 0.59201 0.422965
H 0.392551 0.611547 0.423543
C 0.393526 0.496403 0.423613
C 0.607676 0.56212 0.425583
H 0.435151 0.533241 0.427063
H 0.393801 0.443103 0.427467
H 0.584476 0.547256 0.428934
H 0.580026 0.625676 0.431572
O 0.644051 0.513491 0.431878
H 0.443951 0.574544 0.432432
C 0.392726 0.588279 0.433695
C 0.393176 0.527597 0.435123
H 0.623851 0.500701 0.43549
C 0.393626 0.466856 0.437024
H 0.535251 0.598621 0.439183
O 0.616826 0.577183 0.447767
H 0.641151 0.576305 0.448892
C 0.392526 0.589671 0.45883
C 0.392976 0.528942 0.460622
C 0.393426 0.467685 0.4623
H 0.393801 0.413901 0.467257
H 0.392251 0.613999 0.467617
C 0.392651 0.560197 0.472552
C 0.393101 0.498964 0.474234
C 0.393551 0.438229 0.476043
C 0.392426 0.56105 0.497832
C 0.392876 0.500278 0.499746
C 0.393326 0.439597 0.501175
H 0.392176 0.584796 0.507406
C 0.392551 0.531502 0.511243
H 0.393426 0.416619 0.511602
C 0.393001 0.470391 0.512947
H 0.392376 0.533132 0.530842
H 0.392851 0.470796 0.532586
H 0.534401 0.587022 0.644113
O 0.538601 0.565899 0.652307
H 0.563876 0.521885 0.652848
O 0.574626 0.515216 0.668052
H 0.576776 0.5882 0.673375
C 0.554001 0.572382 0.675011
H 0.512676 0.513184 0.680575
H 0.511676 0.604569 0.684468
C 0.561451 0.537266 0.685225
H 0.626901 0.65356 0.69003
O 0.521626 0.459054 0.692277
C 0.528801 0.586332 0.693181
C 0.525751 0.527785 0.69492
H 0.579576 0.539159 0.700482
O 0.508776 0.558162 0.700517
H 0.673351 0.547492 0.703283
O 0.619001 0.662614 0.705367
O 0.566526 0.629279 0.706993
C 0.520751 0.47112 0.71247
O 0.619576 0.599357 0.714626
O 0.655101 0.548358 0.715026
C 0.544901 0.602553 0.715443
N 0.525076 0.506109 0.716573
P 0.600826 0.63524 0.721661
O 0.683551 0.606333 0.725386
H 0.559451 0.584044 0.726061
H 0.525576 0.613295 0.727532
P 0.653951 0.585016 0.727798
H 0.508076 0.428505 0.731489
N 0.515426 0.453245 0.733562
H 0.517426 0.547135 0.738333
C 0.518001 0.519801 0.738473
H 0.603276 0.54484 0.741696
O 0.598976 0.643666 0.747393
H 0.653926 0.514304 0.74827
O 0.642726 0.575386 0.754484
C 0.510751 0.465447 0.757239
C 0.509776 0.502066 0.758938
C 0.612851 0.554533 0.759212
H 0.493326 0.567031 0.760847
O 0.650601 0.506673 0.764845
H 0.433026 0.546869 0.766257
O 0.587776 0.573756 0.769274
H 0.442626 0.588627 0.773289
O 0.506476 0.445732 0.774037
C 0.624501 0.525454 0.775218
H 0.601751 0.509431 0.777672
C 0.484076 0.55584 0.777804
C 0.446201 0.562742 0.779306
C 0.492276 0.518649 0.779703
H 0.563376 0.629202 0.785911
H 0.620001 0.605848 0.787957
H 0.393326 0.493755 0.788744
C 0.598251 0.589298 0.791786
H 0.497901 0.568859 0.792403
O 0.482376 0.502269 0.79699
H 0.658301 0.553814 0.797247
C 0.635001 0.539016 0.800107
C 0.569826 0.611437 0.800643
C 0.430376 0.558241 0.804423
C 0.393051 0.557515 0.806524
O 0.541551 0.59201 0.80758
H 0.392551 0.611547 0.808158
C 0.393526 0.496403 0.808228
C 0.607676 0.56212 0.810198
H 0.435151 0.533241 0.811678
H 0.393801 0.443103 0.812082
H 0.584476 0.547256 0.813549
H 0.580026 0.625676 0.816187
O 0.644051 0.513491 0.816492
H 0.443951 0.574544 0.817047
C 0.392726 0.588279 0.81831
C 0.393176 0.527597 0.819738
H 0.623851 0.500701 0.820105
C 0.393626 0.466856 0.821639
H 0.535251 0.598621 0.823798
O 0.616826 0.577183 0.832382
H 0.641151 0.576305 0.833507
C 0.392526 0.589671 0.843445
C 0.392976 0.528942 0.845237
C 0.393426 0.467685 0.846915
H 0.393801 0.413901 0.851872
H 0.392251 0.613999 0.852231
C 0.392651 0.560197 0.857167
C 0.393101 0.498964 0.858849
C 0.393551 0.438229 0.860658
C 0.392426 0.56105 0.882447
C 0.392876 0.500278 0.884361
C 0.393326 0.439597 0.885789
H 0.392176 0.584796 0.892021
C 0.392551 0.531502 0.895858
H 0.393426 0.416619 0.896217
C 0.393001 0.470391 0.897562
H 0.392376 0.533132 0.915457
H 0.392851 0.470796 0.917201
