data_global
_cell_length_a 40
_cell_length_b 42.6659
_cell_length_c 63.9387
_cell_angle_alpha 90
_cell_angle_beta 90
_cell_angle_gamma 90
_symmetry_space_group_name_H-M 'P -1'
loop_
_symmetry_equiv_pos_as_xyz
  'x,y,z'
loop_
_atom_site_label
_atom_site_fract_x
_atom_site_fract_y
_atom_site_fract_z
C 0.312001 0.391355 0.0111108
C 0.312001 0.449036 0.0111108
C 0.312001 0.506716 0.0111108
C 0.312001 0.564397 0.0111108
H 0.312001 0.36923 0.0196346
H 0.312001 0.586522 0.0196346
C 0.312001 0.420195 0.0222219
C 0.312001 0.477876 0.0222219
C 0.312001 0.535557 0.0222219
C 0.312001 0.420195 0.911111
C 0.312001 0.477876 0.911111
C 0.312001 0.535557 0.911111
H 0.312001 0.36923 0.913699
H 0.312001 0.586522 0.913699
C 0.312001 0.391355 0.922223
C 0.312001 0.449036 0.922223
C 0.312001 0.506716 0.922223
C 0.312001 0.564397 0.922223
C 0.312001 0.391355 0.944445
C 0.312001 0.449036 0.944445
C 0.312001 0.506716 0.944445
C 0.312001 0.564397 0.944445
C 0.312001 0.420195 0.955556
C 0.312001 0.477876 0.955556
C 0.312001 0.535557 0.955556
C 0.312001 0.420195 0.977778
C 0.312001 0.477876 0.977778
C 0.312001 0.535557 0.977778
C 0.312001 0.391355 0.988889
C 0.312001 0.449036 0.988889
C 0.312001 0.506716 0.988889
C 0.312001 0.564397 0.988889
C 0.312001 0.391355 0.0777775
C 0.312001 0.391355 0.544445
C 0.312001 0.391355 0.144444
C 0.312001 0.391355 0.611111
C 0.312001 0.391355 0.211111
C 0.312001 0.391355 0.677778
C 0.312001 0.391355 0.277777
C 0.312001 0.391355 0.744445
C 0.312001 0.391355 0.344444
C 0.312001 0.391355 0.811111
C 0.312001 0.391355 0.411111
C 0.312001 0.391355 0.877778
C 0.312001 0.391355 0.477777
C 0.312001 0.420195 0.0888886
C 0.312001 0.420195 0.555556
C 0.312001 0.420195 0.155555
C 0.312001 0.420195 0.622223
C 0.312001 0.420195 0.222222
C 0.312001 0.420195 0.688889
C 0.312001 0.420195 0.288889
C 0.312001 0.420195 0.755556
C 0.312001 0.420195 0.355555
C 0.312001 0.420195 0.822223
C 0.312001 0.420195 0.422222
C 0.312001 0.420195 0.888889
C 0.312001 0.420195 0.488889
C 0.312001 0.391355 0.0555552
C 0.312001 0.391355 0.522223
C 0.312001 0.391355 0.122222
C 0.312001 0.391355 0.588889
C 0.312001 0.391355 0.188889
C 0.312001 0.391355 0.655556
C 0.312001 0.391355 0.255555
C 0.312001 0.391355 0.722223
C 0.312001 0.391355 0.322222
C 0.312001 0.391355 0.788889
C 0.312001 0.391355 0.388889
C 0.312001 0.391355 0.855556
C 0.312001 0.391355 0.455555
C 0.312001 0.449036 0.0777775
C 0.312001 0.449036 0.544445
C 0.312001 0.449036 0.144444
C 0.312001 0.449036 0.611111
C 0.312001 0.449036 0.211111
C 0.312001 0.449036 0.677778
C 0.312001 0.449036 0.277777
C 0.312001 0.449036 0.744445
C 0.312001 0.449036 0.344444
C 0.312001 0.449036 0.811111
C 0.312001 0.449036 0.411111
C 0.312001 0.449036 0.877778
C 0.312001 0.449036 0.477777
C 0.312001 0.477876 0.0888886
C 0.312001 0.477876 0.555556
C 0.312001 0.477876 0.155555
C 0.312001 0.477876 0.622223
C 0.312001 0.477876 0.222222
C 0.312001 0.477876 0.688889
C 0.312001 0.477876 0.288889
C 0.312001 0.477876 0.755556
C 0.312001 0.477876 0.355555
C 0.312001 0.477876 0.822223
C 0.312001 0.477876 0.422222
C 0.312001 0.477876 0.888889
C 0.312001 0.477876 0.488889
C 0.312001 0.420195 0.0444441
C 0.312001 0.420195 0.511111
C 0.312001 0.420195 0.111111
C 0.312001 0.420195 0.577778
C 0.312001 0.420195 0.177777
C 0.312001 0.420195 0.644445
C 0.312001 0.420195 0.244444
C 0.312001 0.420195 0.711111
C 0.312001 0.420195 0.311111
C 0.312001 0.420195 0.777778
C 0.312001 0.420195 0.377777
C 0.312001 0.420195 0.844445
C 0.312001 0.420195 0.444444
C 0.312001 0.449036 0.0555552
C 0.312001 0.449036 0.522223
C 0.312001 0.449036 0.122222
C 0.312001 0.449036 0.588889
C 0.312001 0.449036 0.188889
C 0.312001 0.449036 0.655556
C 0.312001 0.449036 0.255555
C 0.312001 0.449036 0.722223
C 0.312001 0.449036 0.322222
C 0.312001 0.449036 0.788889
C 0.312001 0.449036 0.388889
C 0.312001 0.449036 0.855556
C 0.312001 0.449036 0.455555
C 0.312001 0.506716 0.0777775
C 0.312001 0.506716 0.544445
C 0.312001 0.506716 0.144444
C 0.312001 0.506716 0.611111
C 0.312001 0.506716 0.211111
C 0.312001 0.506716 0.677778
C 0.312001 0.506716 0.277777
C 0.312001 0.506716 0.744445
C 0.312001 0.506716 0.344444
C 0.312001 0.506716 0.811111
C 0.312001 0.506716 0.411111
C 0.312001 0.506716 0.877778
C 0.312001 0.506716 0.477777
C 0.312001 0.535557 0.0888886
C 0.312001 0.535557 0.555556
C 0.312001 0.535557 0.155555
C 0.312001 0.535557 0.622223
C 0.312001 0.535557 0.222222
C 0.312001 0.535557 0.688889
C 0.312001 0.535557 0.288889
C 0.312001 0.535557 0.755556
C 0.312001 0.535557 0.355555
C 0.312001 0.535557 0.822223
C 0.312001 0.535557 0.422222
C 0.312001 0.535557 0.888889
C 0.312001 0.535557 0.488889
C 0.312001 0.477876 0.0444441
C 0.312001 0.477876 0.511111
C 0.312001 0.477876 0.111111
C 0.312001 0.477876 0.577778
C 0.312001 0.477876 0.177777
C 0.312001 0.477876 0.644445
C 0.312001 0.477876 0.244444
C 0.312001 0.477876 0.711111
C 0.312001 0.477876 0.311111
C 0.312001 0.477876 0.777778
C 0.312001 0.477876 0.377777
C 0.312001 0.477876 0.844445
C 0.312001 0.477876 0.444444
C 0.312001 0.506716 0.0555552
C 0.312001 0.506716 0.522223
C 0.312001 0.506716 0.122222
C 0.312001 0.506716 0.588889
C 0.312001 0.506716 0.188889
C 0.312001 0.506716 0.655556
C 0.312001 0.506716 0.255555
C 0.312001 0.506716 0.722223
C 0.312001 0.506716 0.322222
C 0.312001 0.506716 0.788889
C 0.312001 0.506716 0.388889
C 0.312001 0.506716 0.855556
C 0.312001 0.506716 0.455555
C 0.312001 0.564397 0.0777775
C 0.312001 0.564397 0.544445
C 0.312001 0.564397 0.144444
C 0.312001 0.564397 0.611111
C 0.312001 0.564397 0.211111
C 0.312001 0.564397 0.677778
C 0.312001 0.564397 0.277777
C 0.312001 0.564397 0.744445
C 0.312001 0.564397 0.344444
C 0.312001 0.564397 0.811111
C 0.312001 0.564397 0.411111
C 0.312001 0.564397 0.877778
C 0.312001 0.564397 0.477777
C 0.312001 0.535557 0.0444441
C 0.312001 0.535557 0.511111
C 0.312001 0.535557 0.111111
C 0.312001 0.535557 0.577778
C 0.312001 0.535557 0.177777
C 0.312001 0.535557 0.644445
C 0.312001 0.535557 0.244444
C 0.312001 0.535557 0.711111
C 0.312001 0.535557 0.311111
C 0.312001 0.535557 0.777778
C 0.312001 0.535557 0.377777
C 0.312001 0.535557 0.844445
C 0.312001 0.535557 0.444444
C 0.312001 0.564397 0.0555552
C 0.312001 0.564397 0.522223
C 0.312001 0.564397 0.122222
C 0.312001 0.564397 0.588889
C 0.312001 0.564397 0.188889
C 0.312001 0.564397 0.655556
C 0.312001 0.564397 0.255555
C 0.312001 0.564397 0.722223
C 0.312001 0.564397 0.322222
C 0.312001 0.564397 0.788889
C 0.312001 0.564397 0.388889
C 0.312001 0.564397 0.855556
C 0.312001 0.564397 0.455555
H 0.312001 0.36923 0.0863013
H 0.312001 0.36923 0.552969
H 0.312001 0.36923 0.152968
H 0.312001 0.36923 0.619635
H 0.312001 0.36923 0.219635
H 0.312001 0.36923 0.686302
H 0.312001 0.36923 0.286301
H 0.312001 0.36923 0.752969
H 0.312001 0.36923 0.352968
H 0.312001 0.36923 0.819635
H 0.312001 0.36923 0.419635
H 0.312001 0.36923 0.886302
H 0.312001 0.36923 0.486301
H 0.312001 0.36923 0.0470315
H 0.312001 0.36923 0.513699
H 0.312001 0.36923 0.113698
H 0.312001 0.36923 0.580365
H 0.312001 0.36923 0.180365
H 0.312001 0.36923 0.647032
H 0.312001 0.36923 0.247031
H 0.312001 0.36923 0.713699
H 0.312001 0.36923 0.313698
H 0.312001 0.36923 0.780365
H 0.312001 0.36923 0.380365
H 0.312001 0.36923 0.847032
H 0.312001 0.36923 0.447031
H 0.312001 0.586522 0.0863013
H 0.312001 0.586522 0.552969
H 0.312001 0.586522 0.152968
H 0.312001 0.586522 0.619635
H 0.312001 0.586522 0.219635
H 0.312001 0.586522 0.686302
H 0.312001 0.586522 0.286301
H 0.312001 0.586522 0.752969
H 0.312001 0.586522 0.352968
H 0.312001 0.586522 0.819635
H 0.312001 0.586522 0.419635
H 0.312001 0.586522 0.886302
H 0.312001 0.586522 0.486301
H 0.312001 0.586522 0.0470315
H 0.312001 0.586522 0.513699
H 0.312001 0.586522 0.113698
H 0.312001 0.586522 0.580365
H 0.312001 0.586522 0.180365
H 0.312001 0.586522 0.647032
H 0.312001 0.586522 0.247031
H 0.312001 0.586522 0.713699
H 0.312001 0.586522 0.313698
H 0.312001 0.586522 0.780365
H 0.312001 0.586522 0.380365
H 0.312001 0.586522 0.847032
H 0.312001 0.586522 0.447031
O 0.486824 0.480444 0.457816
C 0.397424 0.50545 0.49963
C 0.397624 0.50419 0.477531
C 0.397549 0.477345 0.511428
C 0.397499 0.532238 0.466079
C 0.397099 0.534752 0.50997
C 0.434824 0.532918 0.464258
C 0.397874 0.44802 0.501085
C 0.397324 0.478577 0.533538
C 0.397974 0.474945 0.467556
C 0.397174 0.561079 0.476293
C 0.450649 0.537138 0.442491
C 0.396974 0.562385 0.498078
C 0.398074 0.447244 0.479179
C 0.396874 0.535552 0.531879
C 0.396999 0.507851 0.543502
C 0.397999 0.420405 0.512996
C 0.397449 0.450558 0.544979
C 0.488524 0.530668 0.441188
C 0.397774 0.421687 0.534776
C 0.496724 0.495801 0.442834
H 0.448399 0.548203 0.475199
H 0.439599 0.509481 0.470546
H 0.397774 0.472462 0.45067
H 0.396999 0.582894 0.467495
H 0.447074 0.561406 0.437276
H 0.437474 0.522257 0.431182
H 0.396699 0.585193 0.505692
H 0.398249 0.424975 0.470896
H 0.396624 0.557814 0.540177
H 0.396824 0.509379 0.560488
H 0.398249 0.397597 0.505381
H 0.397299 0.450937 0.561999
H 0.502349 0.542873 0.453841
H 0.497774 0.541159 0.426493
H 0.397874 0.400146 0.543813
P 0.658399 0.558021 0.39785
P 0.605274 0.605106 0.392531
O 0.513224 0.532844 0.374206
O 0.592224 0.547464 0.433796
O 0.543049 0.540098 0.332424
O 0.579074 0.492582 0.34607
O 0.647174 0.548993 0.420978
O 0.570974 0.599518 0.379819
O 0.648499 0.490965 0.474719
O 0.621274 0.550677 0.488489
O 0.655049 0.484573 0.429957
O 0.624024 0.571465 0.386435
O 0.545999 0.564578 0.466995
O 0.526074 0.439929 0.367065
O 0.659549 0.523653 0.386781
O 0.623449 0.63077 0.37841
O 0.687999 0.578005 0.395759
O 0.603424 0.613006 0.414832
O 0.510924 0.427439 0.437924
N 0.529524 0.484044 0.388121
N 0.519874 0.434483 0.402845
C 0.558449 0.546176 0.352101
C 0.565899 0.513254 0.360953
C 0.533249 0.559254 0.367849
C 0.530199 0.504366 0.369355
C 0.639449 0.514895 0.460518
C 0.612124 0.536555 0.469264
C 0.628949 0.502181 0.438947
C 0.602699 0.562035 0.453306
C 0.617299 0.529442 0.425075
C 0.549349 0.574461 0.387143
C 0.574274 0.582791 0.460982
C 0.525199 0.451241 0.384566
C 0.522449 0.496881 0.407101
C 0.514224 0.480253 0.424838
C 0.515199 0.445923 0.423366
H 0.581224 0.561006 0.350684
H 0.584024 0.515029 0.374176
H 0.516124 0.576352 0.360297
H 0.517124 0.490677 0.356923
H 0.662749 0.528768 0.458039
H 0.588924 0.52262 0.472167
H 0.606199 0.487158 0.441074
H 0.624449 0.577551 0.449988
H 0.607724 0.520355 0.409895
H 0.530024 0.584533 0.397619
H 0.563899 0.55711 0.396345
H 0.567824 0.599446 0.448215
H 0.584474 0.59614 0.474454
H 0.538849 0.559902 0.325322
H 0.568324 0.498834 0.332893
H 0.521874 0.522507 0.40698
H 0.628299 0.478973 0.477849
H 0.645599 0.549853 0.489465
H 0.658374 0.491727 0.415593
H 0.512524 0.411289 0.401049
H 0.539699 0.570776 0.48105
H 0.677799 0.522842 0.376604
H 0.631349 0.622282 0.365118
O 0.486824 0.480444 0.857816
C 0.397424 0.50545 0.89963
C 0.397624 0.50419 0.877531
C 0.397549 0.477345 0.911428
C 0.397499 0.532238 0.866079
C 0.397099 0.534752 0.90997
C 0.434824 0.532918 0.864258
C 0.397874 0.44802 0.901085
C 0.397324 0.478577 0.933538
C 0.397974 0.474945 0.867556
C 0.397174 0.561079 0.876293
C 0.450649 0.537138 0.842491
C 0.396974 0.562385 0.898078
C 0.398074 0.447244 0.879179
C 0.396874 0.535552 0.931879
C 0.396999 0.507851 0.943502
C 0.397999 0.420405 0.912996
C 0.397449 0.450558 0.944979
C 0.488524 0.530668 0.841188
C 0.397774 0.421687 0.934776
C 0.496724 0.495801 0.842834
H 0.448399 0.548203 0.875199
H 0.439599 0.509481 0.870546
H 0.397774 0.472462 0.85067
H 0.396999 0.582894 0.867495
H 0.447074 0.561406 0.837276
H 0.437474 0.522257 0.831182
H 0.396699 0.585193 0.905692
H 0.398249 0.424975 0.870896
H 0.396624 0.557814 0.940177
H 0.396824 0.509379 0.960488
H 0.398249 0.397597 0.905381
H 0.397299 0.450937 0.961999
H 0.502349 0.542873 0.853841
H 0.497774 0.541159 0.826493
H 0.397874 0.400146 0.943813
P 0.658399 0.558021 0.79785
P 0.605274 0.605106 0.792531
O 0.513224 0.532844 0.774206
O 0.592224 0.547464 0.833796
O 0.543049 0.540098 0.732424
O 0.579074 0.492582 0.74607
O 0.647174 0.548993 0.820978
O 0.570974 0.599518 0.779819
O 0.648499 0.490965 0.874719
O 0.621274 0.550677 0.888489
O 0.655049 0.484573 0.829957
O 0.624024 0.571465 0.786435
O 0.545999 0.564578 0.866995
O 0.526074 0.439929 0.767065
O 0.659549 0.523653 0.786781
O 0.623449 0.63077 0.77841
O 0.687999 0.578005 0.795759
O 0.603424 0.613006 0.814832
O 0.510924 0.427439 0.837924
N 0.529524 0.484044 0.788121
N 0.519874 0.434483 0.802845
C 0.558449 0.546176 0.752101
C 0.565899 0.513254 0.760953
C 0.533249 0.559254 0.767849
C 0.530199 0.504366 0.769355
C 0.639449 0.514895 0.860518
C 0.612124 0.536555 0.869264
C 0.628949 0.502181 0.838947
C 0.602699 0.562035 0.853306
C 0.617299 0.529442 0.825075
C 0.549349 0.574461 0.787143
C 0.574274 0.582791 0.860982
C 0.525199 0.451241 0.784566
C 0.522449 0.496881 0.807101
C 0.514224 0.480253 0.824838
C 0.515199 0.445923 0.823366
H 0.581224 0.561006 0.750684
H 0.584024 0.515029 0.774176
H 0.516124 0.576352 0.760297
H 0.517124 0.490677 0.756923
H 0.662749 0.528768 0.858039
H 0.588924 0.52262 0.872167
H 0.606199 0.487158 0.841074
H 0.624449 0.577551 0.849988
H 0.607724 0.520355 0.809895
H 0.530024 0.584533 0.797619
H 0.563899 0.55711 0.796345
H 0.567824 0.599446 0.848215
H 0.584474 0.59614 0.874454
H 0.538849 0.559902 0.725322
H 0.568324 0.498834 0.732893
H 0.521874 0.522507 0.80698
H 0.628299 0.478973 0.877849
H 0.645599 0.549853 0.889465
H 0.658374 0.491727 0.815593
H 0.512524 0.411289 0.801049
H 0.539699 0.570776 0.88105
H 0.677799 0.522842 0.776604
H 0.631349 0.622282 0.765118
O 0.486824 0.480444 0.257816
C 0.397424 0.50545 0.29963
C 0.397624 0.50419 0.277531
C 0.397549 0.477345 0.311428
C 0.397499 0.532238 0.266079
C 0.397099 0.534752 0.30997
C 0.434824 0.532918 0.264258
C 0.397874 0.44802 0.301085
C 0.397324 0.478577 0.333538
C 0.397974 0.474945 0.267556
C 0.397174 0.561079 0.276293
C 0.450649 0.537138 0.242491
C 0.396974 0.562385 0.298078
C 0.398074 0.447244 0.279179
C 0.396874 0.535552 0.331879
C 0.396999 0.507851 0.343502
C 0.397999 0.420405 0.312996
C 0.397449 0.450558 0.344979
C 0.488524 0.530668 0.241188
C 0.397774 0.421687 0.334776
C 0.496724 0.495801 0.242834
H 0.448399 0.548203 0.275199
H 0.439599 0.509481 0.270546
H 0.397774 0.472462 0.25067
H 0.396999 0.582894 0.267495
H 0.447074 0.561406 0.237276
H 0.437474 0.522257 0.231182
H 0.396699 0.585193 0.305692
H 0.398249 0.424975 0.270896
H 0.396624 0.557814 0.340177
H 0.396824 0.509379 0.360488
H 0.398249 0.397597 0.305381
H 0.397299 0.450937 0.361999
H 0.502349 0.542873 0.253841
H 0.497774 0.541159 0.226493
H 0.397874 0.400146 0.343813
P 0.658399 0.558021 0.19785
P 0.605274 0.605106 0.192531
O 0.513224 0.532844 0.174206
O 0.592224 0.547464 0.233796
O 0.579074 0.492582 0.14607
O 0.647174 0.548993 0.220978
O 0.570974 0.599518 0.179819
O 0.648499 0.490965 0.274719
O 0.621274 0.550677 0.288489
O 0.655049 0.484573 0.229957
O 0.624024 0.571465 0.186435
O 0.545999 0.564578 0.266995
O 0.526074 0.439929 0.167065
O 0.659549 0.523653 0.186781
O 0.623449 0.63077 0.17841
O 0.687999 0.578005 0.195759
O 0.603424 0.613006 0.214832
O 0.510924 0.427439 0.237924
N 0.529524 0.484044 0.188121
N 0.519874 0.434483 0.202845
C 0.558449 0.546176 0.152101
C 0.565899 0.513254 0.160953
C 0.533249 0.559254 0.167849
C 0.530199 0.504366 0.169355
C 0.639449 0.514895 0.260518
C 0.612124 0.536555 0.269264
C 0.628949 0.502181 0.238947
C 0.602699 0.562035 0.253306
C 0.617299 0.529442 0.225075
C 0.549349 0.574461 0.187143
C 0.574274 0.582791 0.260982
C 0.525199 0.451241 0.184566
C 0.522449 0.496881 0.207101
C 0.514224 0.480253 0.224838
C 0.515199 0.445923 0.223366
H 0.581224 0.561006 0.150684
H 0.584024 0.515029 0.174176
H 0.516124 0.576352 0.160297
H 0.517124 0.490677 0.156923
H 0.662749 0.528768 0.258039
H 0.588924 0.52262 0.272167
H 0.606199 0.487158 0.241074
H 0.624449 0.577551 0.249988
H 0.607724 0.520355 0.209895
H 0.530024 0.584533 0.197619
H 0.563899 0.55711 0.196345
H 0.567824 0.599446 0.248215
H 0.584474 0.59614 0.274454
H 0.538849 0.559902 0.125322
H 0.568324 0.498834 0.132893
H 0.521874 0.522507 0.20698
H 0.628299 0.478973 0.277849
H 0.645599 0.549853 0.289465
H 0.658374 0.491727 0.215593
H 0.512524 0.411289 0.201049
H 0.539699 0.570776 0.28105
H 0.677799 0.522842 0.176604
H 0.631349 0.622282 0.165118
O 0.486824 0.480444 0.657816
C 0.397424 0.50545 0.69963
C 0.397624 0.50419 0.677531
C 0.397549 0.477345 0.711428
C 0.397499 0.532238 0.666079
C 0.397099 0.534752 0.70997
C 0.434824 0.532918 0.664258
C 0.397874 0.44802 0.701085
C 0.397324 0.478577 0.733538
C 0.397974 0.474945 0.667556
C 0.397174 0.561079 0.676293
C 0.450649 0.537138 0.642491
C 0.396974 0.562385 0.698078
C 0.398074 0.447244 0.679179
C 0.396874 0.535552 0.731879
C 0.396999 0.507851 0.743502
C 0.397999 0.420405 0.712996
C 0.397449 0.450558 0.744979
C 0.488524 0.530668 0.641188
C 0.397774 0.421687 0.734776
C 0.496724 0.495801 0.642834
H 0.448399 0.548203 0.675199
H 0.439599 0.509481 0.670546
H 0.397774 0.472462 0.65067
H 0.396999 0.582894 0.667495
H 0.447074 0.561406 0.637276
H 0.437474 0.522257 0.631182
H 0.396699 0.585193 0.705692
H 0.398249 0.424975 0.670896
H 0.396624 0.557814 0.740177
H 0.396824 0.509379 0.760488
H 0.398249 0.397597 0.705381
H 0.397299 0.450937 0.761999
H 0.502349 0.542873 0.653841
H 0.497774 0.541159 0.626493
H 0.397874 0.400146 0.743813
P 0.658399 0.558021 0.59785
P 0.605274 0.605106 0.592531
O 0.513224 0.532844 0.574206
O 0.592224 0.547464 0.633796
O 0.543049 0.540098 0.532424
O 0.579074 0.492582 0.54607
O 0.647174 0.548993 0.620978
O 0.570974 0.599518 0.579819
O 0.648499 0.490965 0.674719
O 0.621274 0.550677 0.688489
O 0.655049 0.484573 0.629957
O 0.624024 0.571465 0.586435
O 0.545999 0.564578 0.666995
O 0.526074 0.439929 0.567065
O 0.659549 0.523653 0.586781
O 0.623449 0.63077 0.57841
O 0.687999 0.578005 0.595759
O 0.603424 0.613006 0.614832
O 0.510924 0.427439 0.637924
N 0.529524 0.484044 0.588121
N 0.519874 0.434483 0.602845
C 0.558449 0.546176 0.552101
C 0.565899 0.513254 0.560953
C 0.533249 0.559254 0.567849
C 0.530199 0.504366 0.569355
C 0.639449 0.514895 0.660518
C 0.612124 0.536555 0.669264
C 0.628949 0.502181 0.638947
C 0.602699 0.562035 0.653306
C 0.617299 0.529442 0.625075
C 0.549349 0.574461 0.587143
C 0.574274 0.582791 0.660982
C 0.525199 0.451241 0.584566
C 0.522449 0.496881 0.607101
C 0.514224 0.480253 0.624838
C 0.515199 0.445923 0.623366
H 0.581224 0.561006 0.550684
H 0.584024 0.515029 0.574176
H 0.516124 0.576352 0.560297
H 0.517124 0.490677 0.556923
H 0.662749 0.528768 0.658039
H 0.588924 0.52262 0.672167
H 0.606199 0.487158 0.641074
H 0.624449 0.577551 0.649988
H 0.607724 0.520355 0.609895
H 0.530024 0.584533 0.597619
H 0.563899 0.55711 0.596345
H 0.567824 0.599446 0.648215
H 0.584474 0.59614 0.674454
H 0.538849 0.559902 0.525322
H 0.568324 0.498834 0.532893
H 0.521874 0.522507 0.60698
H 0.628299 0.478973 0.677849
H 0.645599 0.549853 0.689465
H 0.658374 0.491727 0.615593
H 0.512524 0.411289 0.601049
H 0.539699 0.570776 0.68105
H 0.677799 0.522842 0.576604
H 0.631349 0.622282 0.565118
H 0.312001 0.36923 0.952969
H 0.312001 0.586522 0.952969
H 0.312001 0.36923 0.980365
H 0.312001 0.586522 0.980365
O 0.543049 0.540098 0.132424
H 0.395084 0.458465 0.140303
H 0.396113 0.429923 0.106262
H 0.396824 0.509379 0.160488
C 0.397104 0.481431 0.1319
C 0.397945 0.452696 0.0976281
H 0.400393 0.430529 0.0667293
C 0.397907 0.509357 0.142988
C 0.398212 0.481066 0.109269
C 0.400117 0.453135 0.0756339
H 0.400223 0.567788 0.160799
C 0.399722 0.539206 0.132264
C 0.399573 0.510516 0.0980677
C 0.400786 0.568162 0.143294
C 0.401832 0.481601 0.0642625
C 0.400187 0.53955 0.109615
C 0.400824 0.51079 0.0754329
H 0.401524 0.541568 0.0474088
C 0.40219 0.596932 0.1324
C 0.401526 0.569128 0.0986163
H 0.402842 0.619471 0.141354
C 0.401464 0.540872 0.0648938
C 0.402481 0.5975 0.110331
C 0.401664 0.568807 0.0760094
H 0.403458 0.620313 0.101682
H 0.401872 0.59179 0.0675498
C 0.408361 0.480664 0.040748
H 0.461782 0.469433 0.0451736
H 0.401508 0.456842 0.0343794
H 0.452861 0.510976 0.0435177
H 0.39256 0.498309 0.0320404
C 0.446331 0.487434 0.0365903
O 0.504107 0.524362 0.00688957
C 0.456147 0.487256 0.0128323
C 0.492952 0.496507 0.0104719
H 0.440707 0.504947 0.00402644
H 0.451612 0.463263 0.00597374
O 0.514239 0.47108 0.0136988
H 0.538032 0.481862 0.0125113
