data_global
_cell_length_a 40
_cell_length_b 30
_cell_length_c 45
_cell_angle_alpha 90
_cell_angle_beta 90
_cell_angle_gamma 90
_symmetry_space_group_name_H-M 'P -1'
loop_
_symmetry_equiv_pos_as_xyz
  'x,y,z'
loop_
_atom_site_label
_atom_site_fract_x
_atom_site_fract_y
_atom_site_fract_z
H 0.694614 0.472204 0.714755
H 0.697516 0.427016 0.667897
H 0.693614 0.546897 0.740324
C 0.695224 0.503704 0.70142
C 0.69652 0.458406 0.654456
H 0.694567 0.422876 0.612011
C 0.694697 0.544814 0.715494
C 0.695966 0.500209 0.669349
C 0.695004 0.45623 0.62321
H 0.695059 0.630342 0.737375
C 0.695173 0.585874 0.698589
C 0.695548 0.540578 0.651717
C 0.695217 0.628509 0.712512
C 0.693103 0.495124 0.60537
C 0.695383 0.583362 0.666422
C 0.694477 0.538012 0.619564
H 0.693328 0.57837 0.578116
C 0.695416 0.667991 0.695418
C 0.694859 0.624023 0.649127
H 0.69583 0.70115 0.706809
C 0.693935 0.579452 0.602945
C 0.695041 0.665852 0.664088
C 0.69421 0.620561 0.617068
H 0.694849 0.69715 0.650524
H 0.693626 0.651964 0.603617
C 0.685424 0.490683 0.572194
H 0.632176 0.475439 0.580149
H 0.691699 0.455914 0.564433
H 0.641264 0.534105 0.576471
H 0.700951 0.514197 0.558294
C 0.64732 0.500247 0.56699
H 0.651892 0.521011 0.519565
H 0.636673 0.46398 0.524802
O 0.541936 0.56595 0.486958
C 0.55015 0.525671 0.493796
O 0.526735 0.494065 0.502778
H 0.504202 0.512579 0.501606
C 0.635616 0.499044 0.533767
H 0.582368 0.4838 0.541722
H 0.591456 0.542466 0.538044
C 0.597511 0.508607 0.528563
C 0.585808 0.507405 0.495339
H 0.602083 0.529372 0.481138
H 0.586864 0.47234 0.486374
P 0.328649 0.499683 0.360098
P 0.381774 0.561916 0.341965
O 0.473824 0.45275 0.333276
O 0.394824 0.50365 0.412076
O 0.443999 0.441216 0.274009
O 0.407974 0.382683 0.30372
O 0.339874 0.49915 0.394054
O 0.416074 0.54765 0.32572
O 0.338549 0.446783 0.481454
O 0.365774 0.536283 0.486742
O 0.331999 0.414883 0.421209
O 0.363024 0.51235 0.341276
O 0.441049 0.544383 0.45392
O 0.460974 0.32085 0.344742
O 0.327499 0.44655 0.35272
O 0.363599 0.59005 0.316609
O 0.299049 0.526183 0.352631
O 0.383624 0.584316 0.370898
O 0.476124 0.34015 0.445298
N 0.457524 0.392583 0.363654
N 0.467174 0.331783 0.39532
C 0.428599 0.45975 0.299742
C 0.421149 0.418883 0.319498
C 0.453799 0.485916 0.318454
C 0.456849 0.41095 0.33312
C 0.347599 0.472483 0.456387
C 0.374924 0.506883 0.463476
C 0.358099 0.443816 0.429565
C 0.384349 0.533816 0.435631
C 0.369749 0.474283 0.404187
C 0.437699 0.51685 0.341565
C 0.412774 0.566416 0.441454
C 0.461849 0.345483 0.366276
C 0.464599 0.420083 0.386876
C 0.472824 0.406283 0.415142
C 0.471849 0.35815 0.420987
H 0.405824 0.479483 0.294387
H 0.403024 0.42815 0.33732
H 0.470924 0.505616 0.30412
H 0.469924 0.38565 0.31912
H 0.324299 0.49035 0.449787
H 0.398124 0.48915 0.470676
H 0.380849 0.424183 0.435942
H 0.362599 0.553516 0.427498
H 0.379324 0.453916 0.385342
H 0.457024 0.53615 0.353698
H 0.423149 0.49765 0.358231
H 0.419224 0.582816 0.420031
H 0.402574 0.591783 0.456965
H 0.448199 0.464883 0.259676
H 0.418724 0.384516 0.28412
H 0.465174 0.455383 0.380831
H 0.358749 0.43185 0.48852
H 0.341449 0.53565 0.488276
H 0.328674 0.41735 0.399765
H 0.474524 0.29885 0.398165
H 0.477944 0.427693 0.434112
H 0.447349 0.560183 0.471876
H 0.309249 0.440183 0.338876
H 0.355699 0.571483 0.300231
