data_global
_cell_length_a 30
_cell_length_b 40
_cell_length_c 30
_cell_angle_alpha 90
_cell_angle_beta 90
_cell_angle_gamma 90
_symmetry_space_group_name_H-M 'P -1'
loop_
_symmetry_equiv_pos_as_xyz
  'x,y,z'
loop_
_atom_site_label
_atom_site_fract_x
_atom_site_fract_y
_atom_site_fract_z
P 0.456012 0.552954 0.430803
P 0.489592 0.580651 0.515227
O 0.619065 0.507751 0.54682
O 0.449602 0.491476 0.51851
O 0.665355 0.562226 0.496117
O 0.646132 0.516859 0.43103
O 0.429165 0.522956 0.454747
O 0.538978 0.575751 0.535873
O 0.384232 0.417856 0.447547
O 0.342972 0.445979 0.525393
O 0.439528 0.465921 0.401273
O 0.493762 0.563751 0.46646
O 0.435868 0.457299 0.597777
O 0.674058 0.439629 0.46027
O 0.484402 0.534866 0.391807
O 0.487082 0.620171 0.50405
O 0.427222 0.581281 0.415027
O 0.451922 0.567524 0.5431
O 0.555025 0.369891 0.48837
N 0.613645 0.461081 0.500237
N 0.614738 0.404944 0.474277
C 0.620298 0.551011 0.492907
C 0.618252 0.517726 0.468963
C 0.604552 0.541751 0.539553
C 0.633205 0.493619 0.505117
C 0.392225 0.451114 0.463047
C 0.388565 0.451164 0.513913
C 0.438755 0.462071 0.448427
C 0.405348 0.484261 0.533607
C 0.452882 0.494611 0.47117
C 0.554082 0.542856 0.54474
C 0.406925 0.483404 0.584447
C 0.636922 0.435701 0.477073
C 0.571862 0.454559 0.51828
C 0.551142 0.425116 0.51534
C 0.573172 0.397276 0.491673
H 0.601112 0.570626 0.47628
H 0.583975 0.512489 0.45831
H 0.620158 0.557606 0.564933
H 0.669628 0.491341 0.50587
H 0.366515 0.466869 0.44779
H 0.407482 0.429951 0.527237
H 0.462518 0.442214 0.456917
H 0.383175 0.504861 0.523977
H 0.488355 0.498296 0.464027
H 0.544378 0.535846 0.578667
H 0.537672 0.525346 0.522127
H 0.420328 0.506896 0.597523
H 0.373872 0.479046 0.598727
H 0.665142 0.583186 0.51254
H 0.636638 0.534744 0.41124
H 0.555195 0.474521 0.53587
H 0.406965 0.403329 0.46014
H 0.325942 0.464964 0.51444
H 0.469345 0.473154 0.392993
H 0.630852 0.386339 0.45777
H 0.518538 0.420959 0.529833
H 0.436538 0.457299 0.630183
H 0.499968 0.548761 0.369817
H 0.510242 0.630109 0.485153
