data_global
_cell_length_a 24
_cell_length_b 13.4504
_cell_length_c 13.122
_cell_angle_alpha 90
_cell_angle_beta 90
_cell_angle_gamma 90
_symmetry_space_group_name_H-M 'P -1'
loop_
_symmetry_equiv_pos_as_xyz
  'x,y,z'
loop_
_atom_site_label
_atom_site_fract_x
_atom_site_fract_y
_atom_site_fract_z
P 0.45086 0.0624368 0.191047
P 0.45086 0.312437 0.191047
P 0.45086 0.562437 0.191047
P 0.45086 0.812437 0.191047
P 0.45086 0.0624368 0.857713
P 0.45086 0.312437 0.857713
P 0.45086 0.562437 0.857713
P 0.45086 0.812437 0.857713
P 0.45086 0.0624368 0.52438
P 0.45086 0.312437 0.52438
P 0.45086 0.562437 0.52438
P 0.45086 0.812437 0.52438
P 0.54213 0.0624621 0.142407
P 0.54213 0.312462 0.142407
P 0.54213 0.562462 0.142407
P 0.54213 0.812462 0.142407
P 0.54213 0.0624621 0.809073
P 0.54213 0.312462 0.809073
P 0.54213 0.562462 0.809073
P 0.54213 0.812462 0.809073
P 0.54213 0.0624621 0.47574
P 0.54213 0.312462 0.47574
P 0.54213 0.562462 0.47574
P 0.54213 0.812462 0.47574
P 0.54274 0.187462 0.0245467
P 0.54274 0.437462 0.0245467
P 0.54274 0.687462 0.0245467
P 0.54274 0.937462 0.0245467
P 0.54274 0.187462 0.691213
P 0.54274 0.437462 0.691213
P 0.54274 0.687462 0.691213
P 0.54274 0.937462 0.691213
P 0.54274 0.187462 0.35788
P 0.54274 0.437462 0.35788
P 0.54274 0.687462 0.35788
P 0.54274 0.937462 0.35788
P 0.45131 0.187563 0.309053
P 0.45131 0.437563 0.309053
P 0.45131 0.687563 0.309053
P 0.45131 0.937563 0.309053
P 0.45131 0.187563 0.97572
P 0.45131 0.437563 0.97572
P 0.45131 0.687563 0.97572
P 0.45131 0.937563 0.97572
P 0.45131 0.187563 0.642387
P 0.45131 0.437563 0.642387
P 0.45131 0.687563 0.642387
P 0.45131 0.937563 0.642387
